[General]
network = SensorDroneNetwork
sim-time-limit = 10s

# Интервал отправки сообщений от сенсоров (одинаковый для всех)
**.sendInterval = 1s
