[General]
network = WebotsBridgeProject.MyNetwork
sim-time-limit = 100s

*.host1.numApps = 1
*.host1.app[0].typename = "UdpBasicApp"
*.host1.app[0].destAddresses = "host2"
*.host1.app[0].destPort = 5000

*.host2.numApps = 1
*.host2.app[0].typename = "UdpSink"
*.host2.app[0].localPort = 5000

*.webotsReceiver.localPort = 6000
